*Heading
** Job name: Job-2 Model name: connecting_lug
** Generated by: Abaqus/CAE Learning Edition 2025
*Preprint, echo=NO, model=NO, history=NO, contact=NO
**
** PARTS
**
*Part, name=lug
*Node
      1,         100.,          50.,          20.
      2,         100.,          50.,           0.
      3,         100.,          40.,           0.
      4,         100.,          40.,          20.
      5,          60.,          50.,           0.
      6,          60.,          50.,          20.
      7,          60.,          25.,          20.
      8,          60.,          25.,           0.
      9,          85.,          25.,           0.
     10,          85.,          25.,          20.
     11,         100.,          10.,           0.
     12,         100.,          10.,          20.
     13,         115.,          25.,          20.
     14,         115.,          25.,           0.
     15,         100.,           0.,          20.
     16,         125.,          25.,          20.
     17,         125.,          25.,           0.
     18,         100.,           0.,           0.
     19,   86.9763565,   17.5579166,           0.
     20,   86.9763565,   17.5579166,          20.
** ... 456 like lines cut
*Element, type=C3D8R
 1, 179,  32, 173, 383,  29,   1,  31, 171
 2, 185,  36, 180, 384,  35,   2,  30, 172
 3, 384, 180, 179, 383, 172,  30,  29, 171
 4, 191, 192, 384, 383,  40,  39, 172, 171
 5, 192,  41, 185, 384,  39,   3,  35, 172
 6, 173,  43, 191, 383,  31,   4,  40, 171
 7, 185, 186, 388, 384,  36,  37, 181, 180
 8, 186, 187, 389, 388,  37,  38, 182, 181
 9, 187,  48, 195, 389,  38,   5,  45, 182
10, 384, 388, 386, 383, 180, 181, 183, 179
11, 388, 389, 385, 386, 181, 182, 184, 183
12, 389, 195, 196, 385, 182,  45,  46, 184
13, 196,  49, 174, 385,  46,   6,  34, 184
14, 385, 174, 175, 386, 184,  34,  33, 183
15, 386, 175, 173, 383, 183,  33,  32, 179
16, 199,  53, 176, 390,  51,   7,  50, 197
17, 390, 176, 174, 385, 197,  50,  49, 196
18, 200,  54, 177, 391, 199,  53, 176, 390
19, 391, 177, 175, 386, 390, 176, 174, 385
20, 201,  55, 178, 387, 200,  54, 177, 391
** ... 256 like lines cut
*Nset, nset=_PickedSet10, internal
   5,   6,   7,   8,  21,  22,  23,  24,  25,  26,  27,  28,  45,  46,  47,  48
  49,  50,  51,  52,  87,  88,  89,  90, 101, 102, 115, 116, 117, 118, 119, 120
 121, 122, 123, 124, 125, 126, 127, 128, 129, 130, 131, 132, 133, 134, 135, 136
 137, 138, 139, 140, 141, 142, 143, 144, 145, 146, 147, 148, 149, 150, 151, 152
 153, 154, 155, 156, 157, 158, 159, 160, 161, 162, 163, 164, 165, 166, 167, 168
 169, 170, 195, 196, 197, 198, 247, 248, 249, 250, 277, 278, 279, 280, 281, 282
 283, 284, 285, 286, 287, 288, 289, 290, 291, 292, 293, 294, 295, 296, 297, 298
 299, 300, 301, 302, 303, 304, 305, 306, 307, 308, 309, 310, 311, 312, 313, 314
 315, 316, 317, 318, 319, 320, 321, 322, 323, 324, 325, 326, 327, 328, 329, 330
 331, 332, 333, 334, 335, 336, 337, 338, 339, 340, 341, 342, 343, 344, 345, 346
 347, 348, 349, 350, 351, 352, 353, 354, 355, 356, 357, 358, 359, 360, 361, 362
 363, 364, 365, 366, 367, 368, 369, 370, 371, 372, 373, 374, 375, 376, 377, 378
 379, 380, 381, 382, 421, 422, 423, 424, 425, 426, 427, 428, 429, 430, 431, 432
 433, 434, 435, 436, 437, 438, 439, 440, 441, 442, 443, 444, 445, 446, 447, 448
 449, 450, 451, 452, 453, 454, 455, 456, 457, 458, 459, 460, 461, 462, 463, 464
 465, 466, 467, 468, 469, 470, 471, 472, 473, 474, 475, 476
*Elset, elset=_PickedSet10, internal, generate
 133,  276,    1
*Nset, nset=_PickedSet16, internal, generate
   1,  476,    1
*Elset, elset=_PickedSet16, internal, generate
   1,  276,    1
** Section: lug_section
*Solid Section, elset=_PickedSet16, material=steel
,
*End Part
**  
**
** ASSEMBLY
**
*Assembly, name=Assembly
**  
*Instance, name=lug-1, part=lug
*End Instance
**  
*Nset, nset=_PickedSet6, internal, instance=lug-1
  23,  24,  25,  26,  27,  28, 129, 130, 145, 146, 147, 148, 149, 150, 158, 159
 167, 168, 169, 170, 305, 306, 307, 308, 379, 380, 381, 382
*Elset, elset=_PickedSet6, internal, instance=lug-1
 133, 141, 149, 157, 165, 173, 181, 189, 197, 226, 227, 228, 250, 251, 252, 274
 275, 276
*Elset, elset=__PickedSurf7_S3, internal, instance=lug-1
 64, 65
*Elset, elset=__PickedSurf7_S4, internal, instance=lug-1, generate
 66,  69,   1
*Elset, elset=__PickedSurf7_S2, internal, instance=lug-1
 40, 41, 42, 43, 44, 45, 46, 47, 48, 49, 50, 51, 88, 89, 90, 91
 92, 93
*Surface, type=ELEMENT, name=_PickedSurf7, internal
__PickedSurf7_S3, S3
__PickedSurf7_S4, S4
__PickedSurf7_S2, S2
*End Assembly
** 
** MATERIALS
** 
*Material, name=steel
*Elastic
200000., 0.3
** 
** BOUNDARY CONDITIONS
** 
** Name: fixed_surface Type: Symmetry/Antisymmetry/Encastre
*Boundary
_PickedSet6, PINNED
** ----------------------------------------------------------------
** 
** STEP: Load_step
** 
*Step, name=Load_step, nlgeom=NO
*Static
1., 1., 1e-05, 1.
** 
** LOADS
** 
** Name: pressure   Type: Pressure
*Dsload
_PickedSurf7, P, 50.
** 
** OUTPUT REQUESTS
** 
*Restart, write, frequency=0
** 
** FIELD OUTPUT: F-Output-1
** 
*Output, field
*Node Output
RF, U
*Element Output, directions=YES
E, NFORC, S
** 
** HISTORY OUTPUT: H-Output-1
** 
*Output, history, variable=PRESELECT
*End Step
