*Heading
** Job name: Job-1 Model name: connecting_lug
** Generated by: Abaqus/CAE Learning Edition 2025
*Preprint, echo=NO, model=NO, history=NO, contact=NO
**
** PARTS
**
*Part, name=lug
*Node
      1,         100.,          50.,          20.
      2,         100.,          50.,           0.
      3,         100.,          40.,           0.
      4,         100.,          40.,          20.
      5,          60.,          50.,           0.
      6,          60.,          50.,          20.
      7,          60.,          25.,          20.
      8,          60.,          25.,           0.
      9,          85.,          25.,           0.
     10,          85.,          25.,          20.
     11,         100.,          10.,           0.
     12,         100.,          10.,          20.
     13,         115.,          25.,          20.
     14,         115.,          25.,           0.
     15,         100.,           0.,          20.
     16,         125.,          25.,          20.
     17,         125.,          25.,           0.
     18,         100.,           0.,           0.
     19,   86.9763565,   17.5579166,           0.
     20,   86.9763565,   17.5579166,          20.
** ... 268 like lines cut
*Element, type=C3D8R
 1, 141,  31, 135, 253,  29,   1,  30, 134
 2, 144,  35, 141, 253,  34,   2,  29, 134
 3, 150,  39, 144, 253,  38,   3,  34, 134
 4, 135,  41, 150, 253,  30,   4,  38, 134
 5, 144, 145, 255, 253,  35,  36, 142, 141
 6, 145, 146, 254, 255,  36,  37, 143, 142
 7, 146,  45, 152, 254,  37,   5,  43, 143
 8, 152,  46, 136, 254,  43,   6,  33, 143
 9, 254, 136, 137, 255, 143,  33,  32, 142
10, 255, 137, 135, 253, 142,  32,  31, 141
11, 154,  49, 138, 257,  48,   7,  47, 153
12, 257, 138, 136, 254, 153,  47,  46, 152
13, 155,  50, 139, 258, 154,  49, 138, 257
14, 258, 139, 137, 255, 257, 138, 136, 254
15, 156,  51, 140, 256, 155,  50, 139, 258
16, 256, 140, 135, 253, 258, 139, 137, 255
17, 146, 147, 257, 254,  45,  44, 153, 152
18, 147,  52, 154, 257,  44,   8,  48, 153
19, 145, 148, 258, 255, 146, 147, 257, 254
20, 148,  53, 155, 258, 147,  52, 154, 257
** ... 128 like lines cut
*Nset, nset=_PickedSet10, internal
   5,   6,   7,   8,  21,  22,  23,  24,  25,  26,  27,  28,  43,  44,  45,  46
  47,  48,  74,  75,  76,  77,  84,  93,  94,  95,  96,  97,  98,  99, 100, 101
 102, 103, 104, 105, 106, 107, 108, 109, 110, 111, 112, 113, 114, 115, 116, 117
 118, 119, 120, 121, 122, 123, 124, 125, 126, 127, 128, 129, 130, 131, 132, 133
 152, 153, 181, 182, 194, 195, 196, 197, 198, 199, 200, 201, 202, 203, 204, 205
 206, 207, 208, 209, 210, 211, 212, 213, 214, 215, 216, 217, 218, 219, 220, 221
 222, 223, 224, 225, 226, 227, 228, 229, 230, 231, 232, 233, 234, 235, 236, 237
 238, 239, 240, 241, 242, 243, 244, 245, 246, 247, 248, 249, 250, 251, 252, 269
 270, 271, 272, 273, 274, 275, 276, 277, 278, 279, 280, 281, 282, 283, 284, 285
 286, 287, 288
*Elset, elset=_PickedSet10, internal, generate
  77,  148,    1
*Nset, nset=_PickedSet16, internal, generate
   1,  288,    1
*Elset, elset=_PickedSet16, internal, generate
   1,  148,    1
** Section: lug_section
*Solid Section, elset=_PickedSet16, material=steel
,
*End Part
**  
**
** ASSEMBLY
**
*Assembly, name=Assembly
**  
*Instance, name=lug-1, part=lug
*End Instance
**  
*Nset, nset=_PickedSet6, internal, instance=lug-1
  23,  24,  25,  26,  27,  28, 103, 104, 115, 116, 117, 118, 124, 130, 131, 132
 133, 214, 215, 251, 252
*Elset, elset=_PickedSet6, internal, instance=lug-1
  77,  83,  89,  95, 101, 107, 123, 124, 135, 136, 147, 148
*Elset, elset=__PickedSurf7_S3, internal, instance=lug-1
 39, 40
*Elset, elset=__PickedSurf7_S4, internal, instance=lug-1
 41, 42
*Elset, elset=__PickedSurf7_S2, internal, instance=lug-1
 27, 28, 29, 30, 31, 32, 55, 56
*Surface, type=ELEMENT, name=_PickedSurf7, internal
__PickedSurf7_S3, S3
__PickedSurf7_S4, S4
__PickedSurf7_S2, S2
*End Assembly
** 
** MATERIALS
** 
*Material, name=steel
*Elastic
200000., 0.3
** 
** BOUNDARY CONDITIONS
** 
** Name: fixed_surface Type: Symmetry/Antisymmetry/Encastre
*Boundary
_PickedSet6, PINNED
** ----------------------------------------------------------------
** 
** STEP: Load_step
** 
*Step, name=Load_step, nlgeom=NO
*Static
1., 1., 1e-05, 1.
** 
** LOADS
** 
** Name: pressure   Type: Pressure
*Dsload
_PickedSurf7, P, 50.
** 
** OUTPUT REQUESTS
** 
*Restart, write, frequency=0
** 
** FIELD OUTPUT: F-Output-1
** 
*Output, field
*Node Output
RF, U
*Element Output, directions=YES
E, NFORC, S
** 
** HISTORY OUTPUT: H-Output-1
** 
*Output, history, variable=PRESELECT
*End Step
