*Heading
** Job name: Job-5 Model name: connecting_lug
** Generated by: Abaqus/CAE Learning Edition 2025
*Preprint, echo=NO, model=NO, history=NO, contact=NO
**
** PARTS
**
*Part, name=lug
*Node
      1,         100.,          40.,          20.
      2,         100.,          50.,          20.
      3,          60.,          50.,          20.
      4,          60.,          25.,          20.
      5,          85.,          25.,          20.
      6,         100.,          50.,           0.
      7,         100.,          40.,           0.
      8,          85.,          25.,           0.
      9,          60.,          25.,           0.
     10,          60.,          50.,           0.
     11,         100.,           0.,           0.
     12,         100.,          10.,           0.
     13,         115.,          25.,           0.
     14,         125.,          25.,           0.
     15,         100.,          10.,          20.
     16,         100.,           0.,          20.
     17,         125.,          25.,          20.
     18,         115.,          25.,          20.
     19,          60.,           0.,           0.
     20,   86.9763565,   17.5579166,           0.
** ... 832 like lines cut
*Element, type=C3D6
  1,  29,   1, 217, 255,  48, 617
  2,  31,  30, 222, 267, 268, 622
  3, 217,  44, 222, 617, 257, 622
  4, 225, 218, 232, 625, 618, 632
  5,  37,  36, 225, 282, 281, 625
  6,  43, 223, 224, 258, 623, 624
  7,   2,  29,  30,  45, 255, 268
  8,  36,   3,  35, 281,  52, 263
  9,  36,  35, 218, 281, 263, 618
 10, 218,  34, 219, 618, 264, 619
 11, 219,  33, 220, 619, 265, 620
 12,  32,  31, 221, 266, 267, 621
 13, 221, 222, 224, 621, 622, 624
 14, 227,  41, 228, 627, 275, 628
 15,  37, 225, 226, 282, 625, 626
 16,  39,   4, 234, 277,  53, 634
 17,  42,   5, 227, 259,  49, 627
 18, 227, 228, 230, 627, 628, 630
 19, 223, 227, 230, 623, 627, 630
 20,   1,  44, 217,  48, 257, 617
** ... 1039 like lines cut
*Nset, nset=_PickedSet10, internal
   3,   4,   9,  10,  19,  22,  23,  24,  25,  26,  27,  28,  36,  37,  38,  51
  52,  53,  54,  62,  63,  64, 107, 108, 109, 113, 114, 118, 119, 120, 145, 146
 147, 148, 149, 150, 151, 152, 153, 154, 155, 156, 157, 158, 159, 160, 161, 162
 163, 164, 165, 166, 167, 168, 169, 170, 171, 172, 173, 174, 175, 176, 177, 178
 179, 180, 181, 182, 183, 184, 185, 186, 187, 188, 189, 190, 191, 192, 193, 194
 195, 196, 197, 198, 199, 200, 201, 202, 203, 204, 205, 206, 207, 208, 209, 210
 211, 212, 213, 214, 215, 216, 281, 282, 283, 284, 285, 286, 361, 362, 363, 364
 365, 366, 415, 416, 417, 418, 419, 420, 421, 422, 423, 424, 425, 426, 427, 428
 429, 430, 431, 432, 433, 434, 435, 436, 437, 438, 439, 440, 441, 442, 443, 444
 445, 446, 447, 448, 449, 450, 451, 452, 453, 454, 455, 456, 457, 458, 459, 460
 461, 462, 463, 464, 465, 466, 467, 468, 469, 470, 471, 472, 473, 474, 475, 476
 477, 478, 479, 480, 481, 482, 483, 484, 485, 486, 487, 488, 489, 490, 491, 492
 493, 494, 495, 496, 497, 498, 499, 500, 501, 502, 503, 504, 505, 506, 507, 508
 509, 510, 511, 512, 513, 514, 515, 516, 517, 518, 519, 520, 521, 522, 523, 524
 525, 526, 527, 528, 529, 530, 531, 532, 533, 534, 535, 536, 537, 538, 539, 540
 541, 542, 543, 544, 545, 546, 547, 548, 549, 550, 551, 552, 553, 554, 555, 556
 557, 558, 559, 560, 561, 562, 563, 564, 565, 566, 567, 568, 569, 570, 571, 572
 573, 574, 575, 576, 577, 578, 579, 580, 581, 582, 583, 584, 585, 586, 587, 588
 589, 590, 591, 592, 593, 594, 595, 596, 597, 598, 599, 600, 601, 602, 603, 604
 605, 606, 607, 608, 609, 610, 611, 612, 613, 614, 615, 616, 717, 718, 719, 720
** ... 9 like lines cut
*Elset, elset=_PickedSet10, internal, generate
  496,  1059,     1
*Nset, nset=_PickedSet16, internal, generate
   1,  852,    1
*Elset, elset=_PickedSet16, internal, generate
    1,  1059,     1
** Section: lug_section
*Solid Section, elset=_PickedSet16, material=steel
,
*End Part
**  
**
** ASSEMBLY
**
*Assembly, name=Assembly
**  
*Instance, name=lug-1, part=lug
*End Instance
**  
*Nset, nset=_PickedSet6, internal, instance=lug-1
  23,  24,  25,  26,  27,  28, 154, 155, 156, 166, 167, 168, 169, 188, 189, 190
 191, 192, 193, 203, 204, 214, 215, 216, 501, 502, 503, 504, 505, 506, 593, 594
 595, 596, 597, 598
*Elset, elset=_PickedSet6, internal, instance=lug-1
  498,  507,  509,  580,  592,  601,  603,  674,  686,  695,  697,  768,  788,  789,  818,  820
  882,  883,  912,  914,  976,  977, 1006, 1008
*Elset, elset=__PickedSurf7_S3, internal, instance=lug-1
 182, 188, 190, 192, 205, 211, 213, 215, 228, 234, 236, 238, 254, 260, 263, 265
 268, 316, 322, 325, 327, 330, 378, 384, 387, 389, 392
*Surface, type=ELEMENT, name=_PickedSurf7, internal
__PickedSurf7_S3, S3
*End Assembly
** 
** MATERIALS
** 
*Material, name=steel
*Elastic
200000., 0.3
** 
** BOUNDARY CONDITIONS
** 
** Name: fixed_surface Type: Symmetry/Antisymmetry/Encastre
*Boundary
_PickedSet6, PINNED
** ----------------------------------------------------------------
** 
** STEP: Load_step
** 
*Step, name=Load_step, nlgeom=NO
*Static
1., 1., 1e-05, 1.
** 
** LOADS
** 
** Name: pressure   Type: Pressure
*Dsload
_PickedSurf7, P, 50.
** 
** OUTPUT REQUESTS
** 
*Restart, write, frequency=0
** 
** FIELD OUTPUT: F-Output-1
** 
*Output, field
*Node Output
RF, U
*Element Output, directions=YES
E, NFORC, S
** 
** HISTORY OUTPUT: H-Output-1
** 
*Output, history, variable=PRESELECT
*End Step
