*Heading
** Job name: Job-4 Model name: connecting_lug
** Generated by: Abaqus/CAE Learning Edition 2025
*Preprint, echo=NO, model=NO, history=NO, contact=NO
**
** PARTS
**
*Part, name=lug
*Node
      1,         100.,          40.,          20.
      2,         100.,          50.,          20.
      3,          60.,          50.,          20.
      4,          60.,          25.,          20.
      5,          85.,          25.,          20.
      6,         100.,          50.,           0.
      7,         100.,          40.,           0.
      8,          85.,          25.,           0.
      9,          60.,          25.,           0.
     10,          60.,          50.,           0.
     11,           0.,          25.,           0.
     12,           0.,          25.,          20.
     13,           0.,          50.,          20.
     14,           0.,          50.,           0.
     15,         100.,           0.,           0.
     16,         100.,          10.,           0.
     17,         115.,          25.,           0.
     18,         125.,          25.,           0.
     19,         100.,          10.,          20.
     20,         100.,           0.,          20.
** ... 772 like lines cut
*Element, type=C3D8R
 1,  30,  29, 219, 220, 256, 255, 589, 590
 2, 220, 221,  32,  31, 590, 591, 269, 270
 3,  34,  33, 225, 222, 267, 268, 595, 592
 4,  37, 223, 227,  38, 283, 593, 597, 284
 5, 234, 230, 228, 229, 604, 600, 598, 599
 6,  45, 219,  29,   1, 259, 589, 255,  49
 7,  30, 220,  31,   2, 256, 590, 270,  46
 8, 223,  37,   3,  36, 593, 283,  53, 265
 9, 230, 234, 227, 236, 600, 604, 597, 606
10, 232, 231, 235, 226, 602, 601, 605, 596
11,  43, 226, 235,  44, 261, 596, 605, 260
12, 219,  45, 221, 220, 589, 259, 591, 590
13,  41, 229, 228,  42, 278, 599, 598, 277
14,   4,  39, 233,  40,  54, 285, 603, 279
15,  42, 228,  43,   5, 277, 598, 261,  50
16,  43, 228, 230, 226, 261, 598, 600, 596
17,  44, 235, 221,  45, 260, 605, 591, 259
18, 221, 235, 231, 225, 591, 605, 601, 595
19, 222, 224,  35,  34, 592, 594, 266, 267
20, 224, 223,  36,  35, 594, 593, 265, 266
** ... 466 like lines cut
*Nset, nset=_PickedSet10, internal
   3,   4,   9,  10,  11,  12,  13,  14,  23,  26,  27,  28,  37,  38,  39,  52
  53,  54,  55,  64,  65,  66,  73,  74,  75,  76,  77,  78,  79,  80,  81,  82
  83,  84,  85,  86,  87,  88,  89,  90,  91,  92,  93,  94,  95,  96,  97,  98
  99, 100, 101, 102, 103, 104, 105, 106, 107, 108, 109, 110, 111, 112, 113, 114
 115, 116, 117, 118, 157, 158, 159, 162, 163, 166, 167, 168, 175, 176, 177, 178
 179, 180, 181, 182, 183, 184, 185, 186, 187, 188, 189, 190, 191, 192, 193, 194
 195, 196, 197, 198, 199, 200, 283, 284, 285, 286, 287, 288, 289, 290, 291, 292
 293, 294, 295, 296, 297, 298, 299, 300, 301, 302, 303, 304, 305, 306, 307, 308
 309, 310, 311, 312, 313, 314, 315, 316, 317, 318, 319, 320, 321, 322, 323, 324
 325, 326, 327, 328, 329, 330, 331, 332, 333, 334, 335, 336, 337, 338, 339, 340
 341, 342, 343, 344, 345, 346, 347, 348, 349, 350, 351, 352, 353, 354, 355, 356
 357, 358, 359, 360, 361, 362, 363, 364, 365, 366, 367, 368, 369, 370, 371, 372
 373, 374, 375, 376, 377, 378, 379, 380, 381, 382, 383, 384, 455, 456, 457, 458
 459, 460, 479, 480, 481, 482, 483, 484, 485, 486, 487, 488, 489, 490, 491, 492
 493, 494, 495, 496, 497, 498, 499, 500, 501, 502, 503, 504, 505, 506, 507, 508
 509, 510, 511, 512, 513, 514, 515, 516, 517, 518, 519, 520, 521, 522, 523, 524
 525, 526, 527, 528, 529, 530, 531, 532, 533, 534, 535, 536, 537, 538, 539, 540
 541, 542, 543, 544, 545, 546, 547, 548, 549, 550, 551, 552, 553, 554, 555, 556
 625, 626, 627, 628, 629, 630, 631, 632, 633, 634, 635, 636, 637, 638, 639, 640
 641, 642, 643, 644, 645, 646, 647, 648, 649, 650, 651, 652, 653, 654, 655, 656
** ... 5 like lines cut
*Elset, elset=_PickedSet10, internal
  85,  86,  87,  88,  89,  90,  91,  92,  93,  94,  95,  96,  97,  98,  99, 100
 101, 102, 103, 104, 105, 106, 107, 108, 109, 110, 111, 112, 113, 114, 115, 116
 117, 118, 119, 120, 121, 122, 123, 124, 125, 126, 127, 128, 129, 130, 131, 132
 133, 134, 135, 136, 137, 138, 139, 140, 141, 142, 143, 144, 145, 146, 147, 148
 149, 150, 151, 152, 153, 154, 155, 156, 157, 158, 159, 160, 161, 162, 163, 164
 165, 166, 167, 168, 169, 170, 171, 172, 173, 174, 175, 176, 177, 178, 179, 180
 181, 182, 183, 184, 185, 186, 187, 188, 189, 190, 191, 192, 193, 194, 195, 196
 197, 198, 199, 200, 201, 202, 203, 204, 325, 326, 327, 328, 329, 330, 331, 332
 333, 334, 335, 336, 337, 338, 339, 340, 341, 342, 343, 344, 345, 346, 347, 348
 349, 350, 351, 352, 353, 354, 355, 356, 357, 358, 359, 360, 361, 362, 363, 364
 365, 366, 367, 368, 369, 370, 371, 372, 373, 374, 375, 376, 377, 378, 379, 380
 381, 382, 383, 384, 385, 386, 387, 388, 389, 390, 391, 392, 393, 394, 395, 396
 397, 398, 399, 400, 401, 402, 403, 404, 405, 406, 407, 408, 409, 410, 411, 412
 413, 414, 415, 416, 417, 418, 419, 420, 421, 422, 423, 424, 425, 426, 427, 428
 429, 430, 431, 432, 433, 434, 435, 436, 437, 438, 439, 440, 441, 442, 443, 444
*Nset, nset=_PickedSet16, internal, generate
   1,  792,    1
*Elset, elset=_PickedSet16, internal, generate
   1,  486,    1
** Section: lug_section
*Solid Section, elset=_PickedSet16, material=steel
,
*End Part
**  
**
** ASSEMBLY
**
*Assembly, name=Assembly
**  
*Instance, name=lug-1, part=lug
*End Instance
**  
*Nset, nset=_PickedSet6, internal, instance=lug-1
  11,  12,  13,  14,  27,  28, 109, 110, 111, 112, 113, 114, 115, 116, 117, 118
 193, 194, 195, 196, 197, 198, 199, 200, 289, 290, 291, 292, 293, 294, 479, 480
 481, 482, 483, 484
*Elset, elset=_PickedSet6, internal, instance=lug-1
 193, 194, 195, 196, 197, 198, 199, 200, 201, 202, 203, 204, 433, 434, 435, 436
 437, 438, 439, 440, 441, 442, 443, 444
*Elset, elset=__PickedSurf7_S6, internal, instance=lug-1
 207, 209, 221, 223, 235, 237, 247, 256, 273, 282, 299, 308
*Elset, elset=__PickedSurf7_S3, internal, instance=lug-1, generate
 253,  305,   26
*Elset, elset=__PickedSurf7_S5, internal, instance=lug-1
 213, 217, 227, 231, 241, 245, 263, 289, 315
*Surface, type=ELEMENT, name=_PickedSurf7, internal
__PickedSurf7_S6, S6
__PickedSurf7_S3, S3
__PickedSurf7_S5, S5
*End Assembly
** 
** MATERIALS
** 
*Material, name=steel
*Elastic
200000., 0.3
** 
** BOUNDARY CONDITIONS
** 
** Name: fixed_surface Type: Symmetry/Antisymmetry/Encastre
*Boundary
_PickedSet6, PINNED
** ----------------------------------------------------------------
** 
** STEP: Load_step
** 
*Step, name=Load_step, nlgeom=NO
*Static
1., 1., 1e-05, 1.
** 
** LOADS
** 
** Name: pressure   Type: Pressure
*Dsload
_PickedSurf7, P, 50.
** 
** OUTPUT REQUESTS
** 
*Restart, write, frequency=0
** 
** FIELD OUTPUT: F-Output-1
** 
*Output, field
*Node Output
RF, U
*Element Output, directions=YES
E, NFORC, S
** 
** HISTORY OUTPUT: H-Output-1
** 
*Output, history, variable=PRESELECT
*End Step
