*Heading
** Job name: Job-3 Model name: connecting_lug
** Generated by: Abaqus/CAE Learning Edition 2025
*Preprint, echo=NO, model=NO, history=NO, contact=NO
**
** PARTS
**
*Part, name=lug
*Node
      1,         100.,          50.,          20.
      2,         100.,          50.,           0.
      3,         100.,          40.,           0.
      4,         100.,          40.,          20.
      5,          60.,          50.,           0.
      6,          60.,          50.,          20.
      7,          60.,          25.,          20.
      8,          60.,          25.,           0.
      9,          85.,          25.,           0.
     10,          85.,          25.,          20.
     11,         100.,          10.,           0.
     12,         100.,          10.,          20.
     13,         115.,          25.,          20.
     14,         115.,          25.,           0.
     15,         100.,           0.,          20.
     16,         125.,          25.,          20.
     17,         125.,          25.,           0.
     18,         100.,           0.,           0.
     19,   86.9763565,   17.5579166,           0.
     20,   86.9763565,   17.5579166,          20.
** ... 716 like lines cut
*Element, type=C3D8R
 1, 232,  32, 219, 560,  29,   1,  31, 217
 2, 233,  33, 220, 559, 232,  32, 219, 560
 3, 242,  38, 234, 567,  37,   2,  30, 218
 4, 567, 234, 232, 560, 218,  30,  29, 217
 5, 243,  39, 235, 561, 242,  38, 234, 567
 6, 561, 235, 233, 559, 567, 234, 232, 560
 7, 255, 256, 567, 560,  44,  43, 218, 217
 8, 256,  45, 242, 567,  43,   3,  37, 218
 9, 257, 258, 561, 559, 255, 256, 567, 560
10, 258,  46, 243, 561, 256,  45, 242, 567
11, 219,  49, 255, 560,  31,   4,  44, 217
12, 220,  50, 257, 559, 219,  49, 255, 560
13, 243, 244, 568, 561,  39,  40, 236, 235
14, 244, 245, 569, 568,  40,  41, 237, 236
15, 245, 246, 570, 569,  41,  42, 238, 237
16, 246,  57, 263, 570,  42,   5,  53, 238
17, 561, 568, 564, 559, 235, 236, 239, 233
18, 568, 569, 563, 564, 236, 237, 240, 239
19, 569, 570, 562, 563, 237, 238, 241, 240
20, 570, 263, 264, 562, 238,  53,  54, 241
** ... 424 like lines cut
*Nset, nset=_PickedSet10, internal
   5,   6,   7,   8,  21,  22,  23,  24,  25,  26,  27,  28,  53,  54,  55,  56
  57,  58,  59,  60,  61,  62, 109, 110, 111, 112, 113, 114, 127, 128, 145, 146
 147, 148, 149, 150, 151, 152, 153, 154, 155, 156, 157, 158, 159, 160, 161, 162
 163, 164, 165, 166, 167, 168, 169, 170, 171, 172, 173, 174, 175, 176, 177, 178
 179, 180, 181, 182, 183, 184, 185, 186, 187, 188, 189, 190, 191, 192, 193, 194
 195, 196, 197, 198, 199, 200, 201, 202, 203, 204, 205, 206, 207, 208, 209, 210
 211, 212, 213, 214, 215, 216, 263, 264, 265, 266, 267, 268, 343, 344, 345, 346
 347, 348, 385, 386, 387, 388, 389, 390, 391, 392, 393, 394, 395, 396, 397, 398
 399, 400, 401, 402, 403, 404, 405, 406, 407, 408, 409, 410, 411, 412, 413, 414
 415, 416, 417, 418, 419, 420, 421, 422, 423, 424, 425, 426, 427, 428, 429, 430
 431, 432, 433, 434, 435, 436, 437, 438, 439, 440, 441, 442, 443, 444, 445, 446
 447, 448, 449, 450, 451, 452, 453, 454, 455, 456, 457, 458, 459, 460, 461, 462
 463, 464, 465, 466, 467, 468, 469, 470, 471, 472, 473, 474, 475, 476, 477, 478
 479, 480, 481, 482, 483, 484, 485, 486, 487, 488, 489, 490, 491, 492, 493, 494
 495, 496, 497, 498, 499, 500, 501, 502, 503, 504, 505, 506, 507, 508, 509, 510
 511, 512, 513, 514, 515, 516, 517, 518, 519, 520, 521, 522, 523, 524, 525, 526
 527, 528, 529, 530, 531, 532, 533, 534, 535, 536, 537, 538, 539, 540, 541, 542
 543, 544, 545, 546, 547, 548, 549, 550, 551, 552, 553, 554, 555, 556, 557, 558
 629, 630, 631, 632, 633, 634, 635, 636, 637, 638, 639, 640, 641, 642, 643, 644
 645, 646, 647, 648, 649, 650, 651, 652, 653, 654, 655, 656, 657, 658, 659, 660
** ... 5 like lines cut
*Elset, elset=_PickedSet10, internal, generate
 205,  444,    1
*Nset, nset=_PickedSet16, internal, generate
   1,  736,    1
*Elset, elset=_PickedSet16, internal, generate
   1,  444,    1
** Section: lug_section
*Solid Section, elset=_PickedSet16, material=steel
,
*End Part
**  
**
** ASSEMBLY
**
*Assembly, name=Assembly
**  
*Instance, name=lug-1, part=lug
*End Instance
**  
*Nset, nset=_PickedSet6, internal, instance=lug-1
  23,  24,  25,  26,  27,  28, 163, 164, 165, 184, 185, 186, 187, 188, 189, 190
 200, 201, 211, 212, 213, 214, 215, 216, 439, 440, 441, 442, 443, 444, 553, 554
 555, 556, 557, 558
*Elset, elset=_PickedSet6, internal, instance=lug-1
 205, 215, 225, 235, 245, 255, 265, 275, 285, 295, 305, 315, 352, 353, 354, 382
 383, 384, 412, 413, 414, 442, 443, 444
*Elset, elset=__PickedSurf7_S3, internal, instance=lug-1, generate
 100,  102,    1
*Elset, elset=__PickedSurf7_S4, internal, instance=lug-1, generate
 103,  108,    1
*Elset, elset=__PickedSurf7_S2, internal, instance=lug-1
  70,  71,  72,  73,  74,  75,  76,  77,  78,  79,  80,  81,  82,  83,  84, 145
 146, 147, 148, 149, 150, 151, 152, 153
*Surface, type=ELEMENT, name=_PickedSurf7, internal
__PickedSurf7_S3, S3
__PickedSurf7_S4, S4
__PickedSurf7_S2, S2
*End Assembly
** 
** MATERIALS
** 
*Material, name=steel
*Elastic
200000., 0.3
** 
** BOUNDARY CONDITIONS
** 
** Name: fixed_surface Type: Symmetry/Antisymmetry/Encastre
*Boundary
_PickedSet6, PINNED
** ----------------------------------------------------------------
** 
** STEP: Load_step
** 
*Step, name=Load_step, nlgeom=NO
*Static
1., 1., 1e-05, 1.
** 
** LOADS
** 
** Name: pressure   Type: Pressure
*Dsload
_PickedSurf7, P, 50.
** 
** OUTPUT REQUESTS
** 
*Restart, write, frequency=0
** 
** FIELD OUTPUT: F-Output-1
** 
*Output, field
*Node Output
RF, U
*Element Output, directions=YES
E, NFORC, S
** 
** HISTORY OUTPUT: H-Output-1
** 
*Output, history, variable=PRESELECT
*End Step
