*Heading
** Job name: lug_job Model name: connecting_lug
** Generated by: Abaqus/CAE Learning Edition 2025
*Preprint, echo=NO, model=NO, history=NO, contact=NO
**
** PARTS
**
*Part, name=lug
*Node
      1,           0.,          25.,          20.
      2,          60.,          25.,          20.
      3,          60.,          50.,          20.
      4,           0.,          50.,          20.
      5,          60.,          25.,           0.
      6,          60.,          50.,           0.
      7,           0.,          50.,           0.
      8,           0.,          25.,           0.
      9,          60.,           0.,           0.
     10,          60.,           0.,          20.
     11,           0.,           0.,          20.
     12,           0.,           0.,           0.
     13,          85.,          25.,           0.
     14,   86.9763565,   17.5579166,           0.
     15,         115.,          25.,           0.
     16,         125.,          25.,           0.
     17,         100.,           0.,           0.
     18,          85.,          25.,          20.
     19,         100.,           0.,          20.
     20,         125.,          25.,          20.
** ... 280 like lines cut
*Element, type=C3D8R
 1,  54, 148, 257, 144,   1,  25, 124,  38
 2, 148, 149, 258, 257,  25,  26, 125, 124
 3, 149, 150, 259, 258,  26,  27, 126, 125
 4, 150, 151, 260, 259,  27,  28, 127, 126
 5, 151, 152, 261, 260,  28,  29, 128, 127
 6, 152,  56, 146, 261,  29,   2,  30, 128
 7, 144, 257, 262, 145,  38, 124, 129,  37
 8, 257, 258, 263, 262, 124, 125, 130, 129
 9, 258, 259, 264, 263, 125, 126, 131, 130
10, 259, 260, 265, 264, 126, 127, 132, 131
11, 260, 261, 266, 265, 127, 128, 133, 132
12, 261, 146, 147, 266, 128,  30,  31, 133
13, 145, 262, 153,  53,  37, 129,  36,   4
14, 262, 263, 154, 153, 129, 130,  35,  36
15, 263, 264, 155, 154, 130, 131,  34,  35
16, 264, 265, 156, 155, 131, 132,  33,  34
17, 265, 266, 157, 156, 132, 133,  32,  33
18, 266, 147,  55, 157, 133,  31,   3,  32
19,   8,  43, 134,  51,  54, 148, 257, 144
20,  43,  42, 135, 134, 148, 149, 258, 257
** ... 136 like lines cut
*Nset, nset=_PickedSet10, internal
   1,   2,   3,   4,   5,   6,   7,   8,   9,  10,  11,  12,  25,  26,  27,  28
  29,  30,  31,  32,  33,  34,  35,  36,  37,  38,  39,  40,  41,  42,  43,  44
  45,  46,  47,  48,  49,  50,  51,  52,  53,  54,  55,  56,  57,  58,  59,  60
  61,  62,  63,  64,  65,  66,  67,  68,  69,  70,  71,  72,  73,  74,  75,  76
 124, 125, 126, 127, 128, 129, 130, 131, 132, 133, 134, 135, 136, 137, 138, 139
 140, 141, 142, 143, 144, 145, 146, 147, 148, 149, 150, 151, 152, 153, 154, 155
 156, 157, 158, 159, 160, 161, 162, 163, 164, 165, 166, 167, 168, 169, 170, 171
 172, 173, 174, 175, 176, 177, 178, 179, 180, 181, 182, 183, 184, 185, 186, 257
 258, 259, 260, 261, 262, 263, 264, 265, 266, 267, 268, 269, 270, 271, 272, 273
 274, 275, 276
*Elset, elset=_PickedSet10, internal, generate
  1,  72,   1
*Nset, nset=_PickedSet16, internal, generate
   1,  300,    1
*Elset, elset=_PickedSet16, internal, generate
   1,  156,    1
** Section: lug_section
*Solid Section, elset=_PickedSet16, material=steel
,
*End Part
**  
**
** ASSEMBLY
**
*Assembly, name=Assembly
**  
*Instance, name=lug-1, part=lug
*End Instance
**  
*Nset, nset=_PickedSet6, internal, instance=lug-1
   1,   4,   7,   8,  11,  12,  37,  38,  51,  52,  53,  54,  63,  69,  70,  73
  74, 144, 145, 185, 186
*Elset, elset=_PickedSet6, internal, instance=lug-1
  1,  7, 13, 19, 25, 31, 47, 48, 59, 60, 71, 72
*Elset, elset=__PickedSurf7_S4, internal, instance=lug-1
  74,  80,  97, 103
*Elset, elset=__PickedSurf7_S6, internal, instance=lug-1
 76, 99
*Elset, elset=__PickedSurf7_S5, internal, instance=lug-1
  79,  83, 102, 106
*Surface, type=ELEMENT, name=_PickedSurf7, internal
__PickedSurf7_S4, S4
__PickedSurf7_S6, S6
__PickedSurf7_S5, S5
*End Assembly
** 
** MATERIALS
** 
*Material, name=steel
*Elastic
200000., 0.3
** 
** BOUNDARY CONDITIONS
** 
** Name: fixed_surface Type: Symmetry/Antisymmetry/Encastre
*Boundary
_PickedSet6, PINNED
** ----------------------------------------------------------------
** 
** STEP: Load_step
** 
*Step, name=Load_step, nlgeom=NO
*Static
1., 1., 1e-05, 1.
** 
** LOADS
** 
** Name: pressure   Type: Pressure
*Dsload
_PickedSurf7, P, 50.
** 
** OUTPUT REQUESTS
** 
*Restart, write, frequency=0
** 
** FIELD OUTPUT: F-Output-1
** 
*Output, field
*Node Output
RF, U
*Element Output, directions=YES
E, NFORC, S
** 
** HISTORY OUTPUT: H-Output-1
** 
*Output, history, variable=PRESELECT
*End Step
